168

C          0.00000        1.00000        0.00000
C          0.00000        2.00000        0.00000
C          0.00000        4.00000        0.00000
C          0.00000        5.00000        0.00000
C          0.00000        7.00000        0.00000
C          0.00000        8.00000        0.00000
H          0.00000       -0.25000        0.86603
C          0.00000        0.50000        0.86603
C          0.00000        2.50000        0.86603
C          0.00000        3.50000        0.86603
C          0.00000        5.50000        0.86603
C          0.00000        6.50000        0.86603
C          0.00000        8.50000        0.86603
H          0.00000        9.25000        0.86603
C          0.00000        1.00000        1.73205
C          0.00000        2.00000        1.73205
C          0.00000        4.00000        1.73205
C          0.00000        5.00000        1.73205
C          0.00000        7.00000        1.73205
C          0.00000        8.00000        1.73205
H          0.00000       -0.25000        2.59808
C          0.00000        0.50000        2.59808
C          0.00000        2.50000        2.59808
C          0.00000        3.50000        2.59808
C          0.00000        5.50000        2.59808
C          0.00000        6.50000        2.59808
C          0.00000        8.50000        2.59808
H          0.00000        9.25000        2.59808
C          0.00000        1.00000        3.46410
C          0.00000        2.00000        3.46410
C          0.00000        4.00000        3.46410
C          0.00000        5.00000        3.46410
C          0.00000        7.00000        3.46410
C          0.00000        8.00000        3.46410
H          0.00000       -0.25000        4.33013
C          0.00000        0.50000        4.33013
C          0.00000        2.50000        4.33013
C          0.00000        3.50000        4.33013
C          0.00000        5.50000        4.33013
C          0.00000        6.50000        4.33013
C          0.00000        8.50000        4.33013
H          0.00000        9.25000        4.33013
C          0.00000        1.00000        5.19615
C          0.00000        2.00000        5.19615
C          0.00000        4.00000        5.19615
C          0.00000        5.00000        5.19615
C          0.00000        7.00000        5.19615
C          0.00000        8.00000        5.19615
H          0.00000       -0.25000        6.06218
C          0.00000        0.50000        6.06218
C          0.00000        2.50000        6.06218
C          0.00000        3.50000        6.06218
C          0.00000        5.50000        6.06218
C          0.00000        6.50000        6.06218
C          0.00000        8.50000        6.06218
H          0.00000        9.25000        6.06218
C          0.00000        1.00000        6.92820
C          0.00000        2.00000        6.92820
C          0.00000        4.00000        6.92820
C          0.00000        5.00000        6.92820
C          0.00000        7.00000        6.92820
C          0.00000        8.00000        6.92820
H          0.00000       -0.25000        7.79423
C          0.00000        0.50000        7.79423
C          0.00000        2.50000        7.79423
C          0.00000        3.50000        7.79423
C          0.00000        5.50000        7.79423
C          0.00000        6.50000        7.79423
C          0.00000        8.50000        7.79423
H          0.00000        9.25000        7.79423
C          0.00000        1.00000        8.66025
C          0.00000        2.00000        8.66025
C          0.00000        4.00000        8.66025
C          0.00000        5.00000        8.66025
C          0.00000        7.00000        8.66025
C          0.00000        8.00000        8.66025
H          0.00000       -0.25000        9.52628
C          0.00000        0.50000        9.52628
C          0.00000        2.50000        9.52628
C          0.00000        3.50000        9.52628
C          0.00000        5.50000        9.52628
C          0.00000        6.50000        9.52628
C          0.00000        8.50000        9.52628
H          0.00000        9.25000        9.52628
C          0.00000        1.00000       10.39230
B          0.00000        2.00000       10.39230
C          0.00000        4.00000       10.39230
C          0.00000        5.00000       10.39230
B          0.00000        7.00000       10.39230
C          0.00000        8.00000       10.39230
H          0.00000       -0.25000       11.25833
C          0.00000        0.50000       11.25833
C          0.00000        2.50000       11.25833
B          0.00000        3.50000       11.25833
B          0.00000        5.50000       11.25833
C          0.00000        6.50000       11.25833
C          0.00000        8.50000       11.25833
H          0.00000        9.25000       11.25833
C          0.00000        1.00000       12.12436
C          0.00000        2.00000       12.12436
C          0.00000        4.00000       12.12436
C          0.00000        5.00000       12.12436
C          0.00000        7.00000       12.12436
C          0.00000        8.00000       12.12436
H          0.00000       -0.25000       12.99038
C          0.00000        0.50000       12.99038
C          0.00000        2.50000       12.99038
C          0.00000        3.50000       12.99038
C          0.00000        5.50000       12.99038
C          0.00000        6.50000       12.99038
C          0.00000        8.50000       12.99038
H          0.00000        9.25000       12.99038
C          0.00000        1.00000       13.85641
C          0.00000        2.00000       13.85641
C          0.00000        4.00000       13.85641
C          0.00000        5.00000       13.85641
C          0.00000        7.00000       13.85641
C          0.00000        8.00000       13.85641
H          0.00000       -0.25000       14.72243
C          0.00000        0.50000       14.72243
C          0.00000        2.50000       14.72243
C          0.00000        3.50000       14.72243
C          0.00000        5.50000       14.72243
C          0.00000        6.50000       14.72243
C          0.00000        8.50000       14.72243
H          0.00000        9.25000       14.72243
C          0.00000        1.00000       15.58846
C          0.00000        2.00000       15.58846
C          0.00000        4.00000       15.58846
C          0.00000        5.00000       15.58846
C          0.00000        7.00000       15.58846
C          0.00000        8.00000       15.58846
H          0.00000       -0.25000       16.45448
C          0.00000        0.50000       16.45448
C          0.00000        2.50000       16.45448
C          0.00000        3.50000       16.45448
C          0.00000        5.50000       16.45448
C          0.00000        6.50000       16.45448
C          0.00000        8.50000       16.45448
H          0.00000        9.25000       16.45448
C          0.00000        1.00000       17.32051
C          0.00000        2.00000       17.32051
C          0.00000        4.00000       17.32051
C          0.00000        5.00000       17.32051
C          0.00000        7.00000       17.32051
C          0.00000        8.00000       17.32051
H          0.00000       -0.25000       18.18653
C          0.00000        0.50000       18.18653
C          0.00000        2.50000       18.18653
C          0.00000        3.50000       18.18653
C          0.00000        5.50000       18.18653
C          0.00000        6.50000       18.18653
C          0.00000        8.50000       18.18653
H          0.00000        9.25000       18.18653
C          0.00000        1.00000       19.05256
C          0.00000        2.00000       19.05256
C          0.00000        4.00000       19.05256
C          0.00000        5.00000       19.05256
C          0.00000        7.00000       19.05256
C          0.00000        8.00000       19.05256
H          0.00000       -0.25000       19.91858
C          0.00000        0.50000       19.91858
C          0.00000        2.50000       19.91858
C          0.00000        3.50000       19.91858
C          0.00000        5.50000       19.91858
C          0.00000        6.50000       19.91858
C          0.00000        8.50000       19.91858
H          0.00000        9.25000       19.91858
