   28

C       0.000000    1.433600    0.000000
C       0.000000    2.867200    0.000000
C       0.000000    5.734400    0.000000
C       0.000000    7.168000    0.000000
C       0.000000   10.035200    0.000000
C       0.000000   11.468800    0.000000
H       0.000000   -0.358400    1.241534
C       0.000000    0.716800    1.241534
C       0.000000    3.584000    1.241534
C       0.000000    5.017600    1.241534
C       0.000000    7.884800    1.241534
C       0.000000    9.318400    1.241534
C       0.000000   12.185600    1.241534
H       0.000000   13.260800    1.241534
C       0.000000    1.433600    2.483068
C       0.000000    2.867200    2.483068
C       0.000000    5.734400    2.483068
C       0.000000    7.168000    2.483068
C       0.000000   10.035200    2.483068
C       0.000000   11.468800    2.483068
H       0.000000   -0.358400    3.724602
C       0.000000    0.716800    3.724602
C       0.000000    3.584000    3.724602
C       0.000000    5.017600    3.724602
C       0.000000    7.884800    3.724602
C       0.000000    9.318400    3.724602
C       0.000000   12.185600    3.724602
H       0.000000   13.260800    3.724602
